node_systems/34Bus_PV_Optimized/pv_systems_base.dss
! ============================================================
! pv_systems_base.dss
! 固定的 PV 元件与升压变压器定义（不包含曲线/温度/效率曲线）
! 曲线由每个worker的 pv_data_{i}.dss 提供：MyIrrad / MyTemp / MyEff / MyPvsT
! 系统方案：优化型改造 - 900kW总容量，渗透率50.8%
! ============================================================

! ---------- 升压变压器（与原配置一致） ----------
! 原有变压器（540kW基础系统）
New Transformer.pv_up834 phases=3 xhl=4.5
~ wdg=1 bus=trafo_pv834 kV=0.48 kVA=300 conn=wye %r=0.5
~ wdg=2 bus=834        kV=24.9 kVA=300 conn=wye %r=0.5

New Transformer.pv_up890 phases=3 xhl=4.5
~ wdg=1 bus=trafo_pv890 kV=0.48 kVA=300 conn=wye %r=0.5
~ wdg=2 bus=890         kV=4.16 kVA=300 conn=wye %r=0.5

New Transformer.pv_up864 phases=3 xhl=4.5
~ wdg=1 bus=trafo_pv864 kV=0.48 kVA=300 conn=wye %r=0.5
~ wdg=2 bus=864.1       kV=24.9 kVA=300 conn=wye %r=0.5

! 新增变压器 - 优化型方案（360kW扩展）
New Transformer.pv_up844 phases=3 xhl=4.5
~ wdg=1 bus=trafo_pv844 kV=0.48 kVA=200 conn=wye %r=0.5
~ wdg=2 bus=844         kV=24.9 kVA=200 conn=wye %r=0.5

New Transformer.pv_up848 phases=3 xhl=4.5
~ wdg=1 bus=trafo_pv848 kV=0.48 kVA=150 conn=wye %r=0.5
~ wdg=2 bus=848         kV=24.9 kVA=150 conn=wye %r=0.5

New Transformer.pv_up832 phases=3 xhl=4.5
~ wdg=1 bus=trafo_pv832 kV=0.48 kVA=150 conn=wye %r=0.5
~ wdg=2 bus=832         kV=24.9 kVA=150 conn=wye %r=0.5

New Transformer.pv_up856 phases=1 xhl=4.5
~ wdg=1 bus=trafo_pv856 kV=0.277 kVA=100 conn=wye %r=0.5
~ wdg=2 bus=856.2       kV=14.376 kVA=100 conn=wye %r=0.5

! ---------- PV 系统（功率因数1，外部曲线绑定） ----------
! 重要：曲线名与每个worker生成的 pv_data_{i}.dss 中一致：MyIrrad / MyTemp / MyEff / MyPvsT
!       不在本文件里定义这些曲线，避免多进程重复定义冲突

! 原有PV系统（540kW基础）
! PV834: 180 kW @ 834
New PVSystem.PV834 phases=3 bus1=trafo_pv834 kV=0.48 kVA=200 Pmpp=180
~ pf=1.0 irrad=1.0 %cutin=0 %cutout=0
~ IrradShape=MyIrrad Tshape=MyTemp EffCurve=MyEff P-TCurve=MyPvsT

! PV890: 180 kW @ 890
New PVSystem.PV890 phases=3 bus1=trafo_pv890 kV=0.48 kVA=200 Pmpp=180
~ pf=1.0 irrad=1.0 %cutin=0 %cutout=0
~ IrradShape=MyIrrad Tshape=MyTemp EffCurve=MyEff P-TCurve=MyPvsT

! PV864: 180 kW @ 864
New PVSystem.PV864 phases=3 bus1=trafo_pv864 kV=0.48 kVA=200 Pmpp=180
~ pf=1.0 irrad=1.0 %cutin=0 %cutout=0
~ IrradShape=MyIrrad Tshape=MyTemp EffCurve=MyEff P-TCurve=MyPvsT

! 新增PV系统 - 优化型方案（360kW扩展）
! PV844: 120 kW @ 844（重负荷节点）
New PVSystem.PV844 phases=3 bus1=trafo_pv844 kV=0.48 kVA=133 Pmpp=120
~ pf=1.0 irrad=1.0 %cutin=0 %cutout=0
~ IrradShape=MyIrrad Tshape=MyTemp EffCurve=MyEff P-TCurve=MyPvsT

! PV848: 90 kW @ 848（线路末端）
New PVSystem.PV848 phases=3 bus1=trafo_pv848 kV=0.48 kVA=100 Pmpp=90
~ pf=1.0 irrad=1.0 %cutin=0 %cutout=0
~ IrradShape=MyIrrad Tshape=MyTemp EffCurve=MyEff P-TCurve=MyPvsT

! PV832: 90 kW @ 832（分支节点）
New PVSystem.PV832 phases=3 bus1=trafo_pv832 kV=0.48 kVA=100 Pmpp=90
~ pf=1.0 irrad=1.0 %cutin=0 %cutout=0
~ IrradShape=MyIrrad Tshape=MyTemp EffCurve=MyEff P-TCurve=MyPvsT

! PV856: 60 kW @ 856（远端节点，单相）
New PVSystem.PV856 phases=1 bus1=trafo_pv856 kV=0.277 kVA=67 Pmpp=60
~ pf=1.0 irrad=1.0 %cutin=0 %cutout=0
~ IrradShape=MyIrrad Tshape=MyTemp EffCurve=MyEff P-TCurve=MyPvsT